!--- OpenDSS Linecodes file generated from Show LINECONSTANTS command
!--- Frequency = 60 Hz, Earth resistivity = 100 ohm-m
!--- Earth Model = Deri

New Linecode.na2xs3x1x400/35 nphases=3  Units=kft
~ Rmatrix=[0.0278231  |0.000194987  0.0276039  |-4.00011E-005  0.000194987  0.0278231  ]
~ Xmatrix=[0.0238968  |-0.000356925  0.024208  |-2.16084E-005  -0.000356925  0.0238968  ]
~ Cmatrix=[72.2655  |0  72.2655  |0  0  72.2655  ]
